*KEYWORD
$ Simple, well-formed deck exercising every structured keyword root.
*PART
Seat frame
1,1,1
*SECTION_SHELL
1,2,0.0,0.0,0.0,0.0
*MAT_ELASTIC
1,7.85e-9,2.1e5,0.3
*CONTACT_AUTOMATIC_SURFACE_TO_SURFACE
2,3
*CONTROL_TERMINATION
100.0
*DATABASE_BINARY_D3PLOT
1.0
*NODE
1,0.0,0.0,0.0
*ELEMENT_SHELL
1,1,1,2,3,4
*END
