*KEYWORD
$ *PART with no data lines at all — must degrade to UNKNOWN, never crash.
*PART
*MAT_024
$ *MAT_024 with no data lines either.
*END
